TLTK/Dynamic Thay Huy/Vi du minh hoa/Vd 11 - Voltage collapse/New England/new_eng_final.raw
0,   100.00, 33, 0, 1, 50.00     / PSS(R)E-33.4    SAT, MAY 08 2021  10:24
NEW ENGLAND TEST SYSTEM, 39 BUSES, 9 GENERATORS
CREATED BY PABLO LEDESMA PABLOLE@ING.UC3M.ES
     1,'1           ', 345.0000,1,   1,   1,   1,0.70637, -41.5213,1.10000,0.90000,1.10000,0.90000
     2,'2           ', 345.0000,1,   1,   1,   1,0.44932, -60.1299,1.10000,0.90000,1.10000,0.90000
     3,'3           ', 345.0000,1,   1,   1,   1,0.36461, -74.2754,1.10000,0.90000,1.10000,0.90000
     4,'4           ', 345.0000,1,   1,   1,   1,0.36870, -65.8229,1.10000,0.90000,1.10000,0.90000
     5,'5           ', 345.0000,1,   1,   1,   1,0.43141, -53.5102,1.10000,0.90000,1.10000,0.90000
     6,'6           ', 345.0000,1,   1,   1,   1,0.43873, -51.1555,1.10000,0.90000,1.10000,0.90000
     7,'7           ', 345.0000,1,   1,   1,   1,0.44578, -54.4504,1.10000,0.90000,1.10000,0.90000
     8,'8           ', 345.0000,1,   1,   1,   1,0.45450, -54.6140,1.10000,0.90000,1.10000,0.90000
     9,'9           ', 345.0000,1,   1,   1,   1,0.69913, -40.5592,1.10000,0.90000,1.10000,0.90000
    10,'10          ', 345.0000,1,   1,   1,   1,0.39556, -47.8275,1.10000,0.90000,1.10000,0.90000
    11,'11          ', 345.0000,1,   1,   1,   1,0.40802, -49.1453,1.10000,0.90000,1.10000,0.90000
    12,'12          ', 345.0000,1,   1,   1,   1,0.37544, -50.8149,1.10000,0.90000,1.10000,0.90000
    13,'13          ', 345.0000,1,   1,   1,   1,0.37696, -52.3845,1.10000,0.90000,1.10000,0.90000
    14,'14          ', 345.0000,1,   1,   1,   1,0.34536, -65.1537,1.10000,0.90000,1.10000,0.90000
    15,'15          ', 345.0000,1,   1,   1,   1,0.30863, -98.7817,1.10000,0.90000,1.10000,0.90000
    16,'16          ', 345.0000,1,   1,   1,   1,0.33970,-108.2964,1.10000,0.90000,1.10000,0.90000
    17,'17          ', 345.0000,1,   1,   1,   1,0.30861, -99.1087,1.10000,0.90000,1.10000,0.90000
    18,'18          ', 345.0000,1,   1,   1,   1,0.31965, -90.0197,1.10000,0.90000,1.10000,0.90000
    19,'19          ', 345.0000,1,   1,   1,   1,0.37565,-128.0079,1.10000,0.90000,1.10000,0.90000
    20,'20          ', 345.0000,1,   1,   1,   1,0.33939,-128.7264,1.10000,0.90000,1.10000,0.90000
    21,'21          ', 345.0000,1,   1,   1,   1,0.42021,-107.3553,1.10000,0.90000,1.10000,0.90000
    22,'22          ', 345.0000,1,   1,   1,   1,0.52605,-102.2867,1.10000,0.90000,1.10000,0.90000
    23,'23          ', 345.0000,1,   1,   1,   1,0.51667,-103.4228,1.10000,0.90000,1.10000,0.90000
    24,'24          ', 345.0000,1,   1,   1,   1,0.36738,-109.9530,1.10000,0.90000,1.10000,0.90000
    25,'25          ', 345.0000,1,   1,   1,   1,0.29600, -68.3616,1.10000,0.90000,1.10000,0.90000
    26,'26          ', 345.0000,1,   1,   1,   1,0.20767, -90.9890,1.10000,0.90000,1.10000,0.90000
    27,'27          ', 345.0000,1,   1,   1,   1,0.24101, -99.4047,1.10000,0.90000,1.10000,0.90000
    28,'28          ', 345.0000,1,   1,   1,   1,0.11266, -94.8804,1.10000,0.90000,1.10000,0.90000
    29,'29          ', 345.0000,1,   1,   1,   1,0.10410, -93.2322,1.10000,0.90000,1.10000,0.90000
    30,'30          ',  22.0000,2,   1,   1,   1,0.65110, -39.4939,1.10000,0.90000,1.10000,0.90000
    31,'31          ',  22.0000,2,   1,   1,   1,0.54884, -31.2155,1.10000,0.90000,1.10000,0.90000
    32,'32          ',  22.0000,2,   1,   1,   1,0.43510, -20.8344,1.10000,0.90000,1.10000,0.90000
    33,'33          ',  22.0000,2,   1,   1,   1,0.42042,-139.4129,1.10000,0.90000,1.10000,0.90000
    34,'34          ',  22.0000,2,   1,   1,   1,0.36769,-109.2152,1.10000,0.90000,1.10000,0.90000
    35,'35          ',  22.0000,2,   1,   1,   1,0.63791, -96.7424,1.10000,0.90000,1.10000,0.90000
    36,'36          ',  22.0000,2,   1,   1,   1,0.63823, -96.0065,1.10000,0.90000,1.10000,0.90000
    37,'37          ',  22.0000,2,   1,   1,   1,0.28273,-111.2929,1.10000,0.90000,1.10000,0.90000
    38,'38          ',  22.0000,2,   1,   1,   1,0.10156, -93.2322,1.10000,0.90000,1.10000,0.90000
    39,'39          ',  22.0000,2,   1,   1,   1,0.86489, -35.2123,1.10000,0.90000,1.10000,0.90000
0 / END OF BUS DATA, BEGIN LOAD DATA
     1,'1 ',1,   1,   1,     0.000,     0.000,     0.000,     0.000,     0.000,     0.000,   1,1,0
     2,'1 ',1,   1,   1,     0.000,     0.000,     0.000,     0.000,     0.000,     0.000,   1,1,0
     3,'1 ',1,   1,   1,   144.900,     0.960,    92.342,     0.688,    73.560,    -0.658,   1,1,0
     4,'1 ',1,   1,   1,   225.000,    73.600,   142.618,    52.483,   113.000,   -49.901,   1,1,0
     5,'1 ',1,   1,   1,     0.000,     0.000,     0.000,     0.000,     0.000,     0.000,   1,1,0
     6,'1 ',1,   1,   1,     0.000,     0.000,     0.000,     0.000,     0.000,     0.000,   1,1,0
     7,'1 ',1,   1,   1,   105.210,    33.600,    66.254,    23.804,    52.153,   -22.485,   1,1,0
     8,'1 ',1,   1,   1,   234.900,    70.400,   148.293,    49.999,   117.022,   -47.347,   1,1,0
     9,'1 ',1,   1,   1,     0.000,     0.000,     0.000,     0.000,     0.000,     0.000,   1,1,0
    10,'1 ',1,   1,   1,     0.000,     0.000,     0.000,     0.000,     0.000,     0.000,   1,1,0
    11,'1 ',1,   1,   1,     0.000,     0.000,     0.000,     0.000,     0.000,     0.000,   1,1,0
    12,'1 ',1,   1,   1,     3.825,    35.200,     2.442,    25.279,     1.948,   -24.206,   1,1,0
    13,'1 ',1,   1,   1,     0.000,     0.000,     0.000,     0.000,     0.000,     0.000,   1,1,0
    14,'1 ',1,   1,   1,     0.000,     0.000,     0.000,     0.000,     0.000,     0.000,   1,1,0
    15,'1 ',1,   1,   1,   144.000,    61.200,    94.140,    45.011,    76.930,   -44.138,   1,1,0
    16,'1 ',1,   1,   1,   148.230,   129.200,    96.614,    94.736,    78.714,   -92.621,   1,1,0
    17,'1 ',1,   1,   1,     0.000,     0.000,     0.000,     0.000,     0.000,     0.000,   1,1,0
    18,'1 ',1,   1,   1,    71.100,    12.000,    45.763,     8.689,    36.819,    -8.389,   1,1,0
    19,'1 ',1,   1,   1,     0.000,     0.000,     0.000,     0.000,     0.000,     0.000,   1,1,0
    20,'1 ',1,   1,   1,   306.000,    41.200,   206.255,    31.242,   173.779,   -31.587,   1,1,0
    21,'1 ',1,   1,   1,   123.300,    46.000,    80.158,    33.643,    65.140,   -32.808,   1,1,0
    22,'1 ',1,   1,   1,     0.000,     0.000,     0.000,     0.000,     0.000,     0.000,   1,1,0
    23,'1 ',1,   1,   1,   111.375,    33.840,    71.305,    24.373,    57.064,   -23.407,   1,1,0
    24,'1 ',1,   1,   1,   138.870,   -36.880,    89.956,   -26.876,    72.839,    26.114,   1,1,0
    25,'1 ',1,   1,   1,   100.800,    18.880,    63.393,    13.358,    49.834,   -12.601,   1,1,0
    26,'1 ',1,   1,   1,    62.550,     6.800,    39.797,     4.867,    31.651,    -4.645,   1,1,0
    27,'1 ',1,   1,   1,   126.450,    30.200,    81.494,    21.896,    65.652,   -21.167,   1,1,0
    28,'1 ',1,   1,   1,    92.700,    11.040,    59.442,     7.964,    47.645,    -7.660,   1,1,0
    29,'1 ',1,   1,   1,   127.575,    50.760,    81.957,    36.685,    65.814,   -35.351,   1,1,0
    31,'1 ',1,   1,   1,     4.140,     1.840,     2.654,     1.327,     2.126,    -1.276,   1,1,0
    39,'1 ',1,   1,   1,   496.800,   100.000,   321.553,    72.816,   260.156,   -70.695,   1,1,0
0 / END OF LOAD DATA, BEGIN FIXED SHUNT DATA
     4,'1 ',1,     0.000,   100.000
     5,'1 ',1,     0.000,   200.000
0 / END OF FIXED SHUNT DATA, BEGIN GENERATOR DATA
    30,'1 ',   555.744,   866.424,   800.000,  -500.000,1.04750,     0,  1000.000, 0.00000E+0, 2.00000E-1, 0.00000E+0, 0.00000E+0,1.00000,1,  100.0,  9999.900,     0.000,   1,1.0000
    31,'1 ',   370.746,   484.288,   800.000,  -500.000,1.04000,     0,  1000.000, 0.00000E+0, 2.00000E-1, 0.00000E+0, 0.00000E+0,1.00000,1,  100.0,  9999.900,     0.000,   1,1.0000
    32,'1 ',   365.026,   229.925,   800.000,  -500.000,0.98310,     0,  1000.000, 0.00000E+0, 2.00000E-1, 0.00000E+0, 0.00000E+0,1.00000,1,  100.0,  9999.900,     0.000,   1,1.0000
    33,'1 ',  -193.939,   235.394,   800.000,  -500.000,0.99720,     0,  1000.000, 0.00000E+0, 2.00000E-1, 0.00000E+0, 0.00000E+0,1.00000,1,  100.0,  9999.900,     0.000,   1,1.0000
    34,'1 ',   234.071,    91.752,   400.000,  -300.000,1.01230,     0,  1000.000, 0.00000E+0, 2.00000E-1, 0.00000E+0, 0.00000E+0,1.00000,1,  100.0,  9999.900,     0.000,   1,1.0000
    35,'1 ',   221.199,   566.950,   800.000,  -500.000,1.04930,     0,  1000.000, 0.00000E+0, 2.00000E-1, 0.00000E+0, 0.00000E+0,1.00000,1,  100.0,  9999.900,     0.000,   1,1.0000
    36,'1 ',   161.860,   292.390,   800.000,  -500.000,1.06350,     0,  1000.000, 0.00000E+0, 2.00000E-1, 0.00000E+0, 0.00000E+0,1.00000,1,  100.0,  9999.900,     0.000,   1,1.0000
    37,'1 ',  -237.293,    93.017,   800.000,  -500.000,1.02780,     0,  1000.000, 0.00000E+0, 2.00000E-1, 0.00000E+0, 0.00000E+0,1.00000,1,  100.0,  9999.900,     0.000,   1,1.0000
    38,'1 ',     0.000,     0.000,   800.000,  -500.000,1.02650,     0,  1000.000, 0.00000E+0, 2.00000E-1, 0.00000E+0, 0.00000E+0,1.00000,0,  100.0,  9999.900,     0.000,   1,1.0000
    39,'1 ',  1509.224,  1269.296,  1500.000, -1000.000,1.03000,     0,  1000.000, 0.00000E+0, 2.00000E-2, 0.00000E+0, 0.00000E+0,1.00000,1,  100.0,  9999.900,     0.000,   1,1.0000
0 / END OF GENERATOR DATA, BEGIN BRANCH DATA
     1,     2,'1 ', 3.50000E-3, 4.11000E-2,   0.69870,    0.00,    0.00,    1.00,  0.00000,  0.00000,  0.00000,  0.00000,1,1,   0.00,   1,1.0000
     1,    39,'1 ', 1.00000E-3, 2.50000E-2,   0.75000,    0.00,    0.00,    1.00,  0.00000,  0.00000,  0.00000,  0.00000,1,1,   0.00,   1,1.0000
     2,     3,'1 ', 1.30000E-3, 1.51000E-2,   0.25720,    0.00,    0.00,    1.00,  0.00000,  0.00000,  0.00000,  0.00000,1,1,   0.00,   1,1.0000
     2,    25,'1 ', 7.00000E-3, 8.60000E-3,   0.14600,    0.00,    0.00,    1.00,  0.00000,  0.00000,  0.00000,  0.00000,1,1,   0.00,   1,1.0000
     3,     4,'1 ', 1.30000E-3, 2.13000E-2,   0.22140,    0.00,    0.00,    1.00,  0.00000,  0.00000,  0.00000,  0.00000,1,1,   0.00,   1,1.0000
     3,    18,'1 ', 1.10000E-3, 1.33000E-2,   0.21380,    0.00,    0.00,    1.00,  0.00000,  0.00000,  0.00000,  0.00000,1,1,   0.00,   1,1.0000
     4,     5,'1 ', 8.00000E-4, 1.28000E-2,   0.13420,    0.00,    0.00,    1.00,  0.00000,  0.00000,  0.00000,  0.00000,1,1,   0.00,   1,1.0000
     4,    14,'1 ', 8.00000E-4, 1.29000E-2,   0.13820,    0.00,    0.00,    1.00,  0.00000,  0.00000,  0.00000,  0.00000,1,1,   0.00,   1,1.0000
     5,     6,'1 ', 2.00000E-4, 2.60000E-3,   0.04340,    0.00,    0.00,    1.00,  0.00000,  0.00000,  0.00000,  0.00000,1,2,   0.00,   1,1.0000
     5,     8,'1 ', 8.00000E-4, 1.12000E-2,   0.14760,    0.00,    0.00,    1.00,  0.00000,  0.00000,  0.00000,  0.00000,1,1,   0.00,   1,1.0000
     6,     7,'1 ', 6.00000E-4, 9.20000E-3,   0.11300,    0.00,    0.00,    1.00,  0.00000,  0.00000,  0.00000,  0.00000,1,1,   0.00,   1,1.0000
     6,    11,'1 ', 7.00000E-4, 8.20000E-3,   0.13890,    0.00,    0.00,    1.00,  0.00000,  0.00000,  0.00000,  0.00000,1,1,   0.00,   1,1.0000
     7,     8,'1 ', 4.00000E-4, 4.60000E-3,   0.07800,    0.00,    0.00,    1.00,  0.00000,  0.00000,  0.00000,  0.00000,1,1,   0.00,   1,1.0000
     8,     9,'1 ', 2.30000E-3, 3.63000E-2,   0.38040,    0.00,    0.00,    1.00,  0.00000,  0.00000,  0.00000,  0.00000,1,1,   0.00,   1,1.0000
     9,    39,'1 ', 1.00000E-3, 2.50000E-2,   1.20000,    0.00,    0.00,    1.00,  0.00000,  0.00000,  0.00000,  0.00000,1,1,   0.00,   1,1.0000
    10,    11,'1 ', 4.00000E-4, 4.30000E-3,   0.07290,    0.00,    0.00,    1.00,  0.00000,  0.00000,  0.00000,  0.00000,1,1,   0.00,   1,1.0000
    10,    13,'1 ', 4.00000E-4, 4.30000E-3,   0.07290,    0.00,    0.00,    1.00,  0.00000,  0.00000,  0.00000,  0.00000,1,1,   0.00,   1,1.0000
    13,    14,'1 ', 9.00000E-4, 1.01000E-2,   0.17230,    0.00,    0.00,    1.00,  0.00000,  0.00000,  0.00000,  0.00000,1,1,   0.00,   1,1.0000
    14,    15,'1 ', 1.80000E-3, 2.17000E-2,   0.36600,    0.00,    0.00,    1.00,  0.00000,  0.00000,  0.00000,  0.00000,1,1,   0.00,   1,1.0000
    15,    16,'1 ', 9.00000E-4, 9.40000E-3,   0.17100,    0.00,    0.00,    1.00,  0.00000,  0.00000,  0.00000,  0.00000,1,1,   0.00,   1,1.0000
    16,    17,'1 ', 7.00000E-4, 8.90000E-3,   0.13420,    0.00,    0.00,    1.00,  0.00000,  0.00000,  0.00000,  0.00000,1,1,   0.00,   1,1.0000
    16,    19,'1 ', 1.60000E-3, 1.95000E-2,   0.30400,    0.00,    0.00,    1.00,  0.00000,  0.00000,  0.00000,  0.00000,1,1,   0.00,   1,1.0000
    16,    21,'1 ', 8.00000E-4, 1.35000E-2,   0.25480,    0.00,    0.00,    1.00,  0.00000,  0.00000,  0.00000,  0.00000,1,1,   0.00,   1,1.0000
    16,    24,'1 ', 3.00000E-4, 5.90000E-3,   0.06800,    0.00,    0.00,    1.00,  0.00000,  0.00000,  0.00000,  0.00000,1,1,   0.00,   1,1.0000
    17,    18,'1 ', 7.00000E-4, 8.20000E-3,   0.13190,    0.00,    0.00,    1.00,  0.00000,  0.00000,  0.00000,  0.00000,1,1,   0.00,   1,1.0000
    17,    27,'1 ', 1.30000E-3, 1.73000E-2,   0.32160,    0.00,    0.00,    1.00,  0.00000,  0.00000,  0.00000,  0.00000,1,1,   0.00,   1,1.0000
    21,    22,'1 ', 8.00000E-4, 1.40000E-2,   0.25650,    0.00,    0.00,    1.00,  0.00000,  0.00000,  0.00000,  0.00000,1,1,   0.00,   1,1.0000
    22,    23,'1 ', 6.00000E-4, 9.60000E-3,   0.18460,    0.00,    0.00,    1.00,  0.00000,  0.00000,  0.00000,  0.00000,1,1,   0.00,   1,1.0000
    23,    24,'1 ', 2.20000E-3, 3.50000E-2,   0.36100,    0.00,    0.00,    1.00,  0.00000,  0.00000,  0.00000,  0.00000,1,1,   0.00,   1,1.0000
    25,    26,'1 ', 3.20000E-3, 3.23000E-2,   0.51300,    0.00,    0.00,    1.00,  0.00000,  0.00000,  0.00000,  0.00000,1,1,   0.00,   1,1.0000
    26,    27,'1 ', 1.40000E-3, 1.47000E-2,   0.23960,    0.00,    0.00,    1.00,  0.00000,  0.00000,  0.00000,  0.00000,1,1,   0.00,   1,1.0000
    26,    28,'1 ', 4.30000E-3, 4.74000E-2,   0.78020,    0.00,    0.00,    1.00,  0.00000,  0.00000,  0.00000,  0.00000,1,1,   0.00,   1,1.0000
    26,    29,'1 ', 5.70000E-3, 6.25000E-2,   1.02900,    0.00,    0.00,    1.00,  0.00000,  0.00000,  0.00000,  0.00000,1,1,   0.00,   1,1.0000
    28,    29,'1 ', 1.40000E-3, 1.51000E-2,   0.24900,    0.00,    0.00,    1.00,  0.00000,  0.00000,  0.00000,  0.00000,1,1,   0.00,   1,1.0000
0 / END OF BRANCH DATA, BEGIN TRANSFORMER DATA
     2,    30,     0,'1 ',1,1,1, 0.00000E+0, 0.00000E+0,2,'            ',1,   1,1.0000,   0,1.0000,   0,1.0000,   0,1.0000,'            '
 0.00000E+0, 1.81000E-2,   100.00
1.02500,   0.000,   0.000,     0.00,     0.00,     0.00, 0,      0, 1.20000, 0.80000, 1.20000, 0.80000,   8, 0, 0.00000, 0.00000,  0.000
1.00000,   0.000
    31,     6,     0,'1 ',1,1,1, 0.00000E+0, 0.00000E+0,2,'            ',1,   1,1.0000,   0,1.0000,   0,1.0000,   0,1.0000,'            '
 0.00000E+0, 2.50000E-2,   100.00
0.90000,   0.000,   0.000,     0.00,     0.00,     0.00,-1,      6, 1.20000, 0.80000, 1.17000, 0.98000,   8, 0, 0.00000, 0.00000,  0.000
1.00000,   0.000
    10,    32,     0,'1 ',1,1,1, 0.00000E+0, 0.00000E+0,2,'            ',1,   1,1.0000,   0,1.0000,   0,1.0000,   0,1.0000,'            '
 0.00000E+0, 2.00000E-2,   100.00
1.07000,   0.000,   0.000,     0.00,     0.00,     0.00, 0,      0, 1.20000, 0.80000, 1.20000, 0.80000,   8, 0, 0.00000, 0.00000,  0.000
1.00000,   0.000
    12,    11,     0,'1 ',1,1,1, 0.00000E+0, 0.00000E+0,2,'            ',1,   1,1.0000,   0,1.0000,   0,1.0000,   0,1.0000,'            '
 1.60000E-3, 4.35000E-2,   100.00
1.00600,   0.000,   0.000,     0.00,     0.00,     0.00, 0,      0, 1.20000, 0.80000, 1.20000, 0.80000,   8, 0, 0.00000, 0.00000,  0.000
1.00000,   0.000
    12,    13,     0,'1 ',1,1,1, 0.00000E+0, 0.00000E+0,2,'            ',1,   1,1.0000,   0,1.0000,   0,1.0000,   0,1.0000,'            '
 1.60000E-3, 4.35000E-2,   100.00
1.00600,   0.000,   0.000,     0.00,     0.00,     0.00, 0,      0, 1.20000, 0.80000, 1.20000, 0.80000,   8, 0, 0.00000, 0.00000,  0.000
1.00000,   0.000
    19,    20,     0,'1 ',1,1,1, 0.00000E+0, 0.00000E+0,2,'            ',1,   1,1.0000,   0,1.0000,   0,1.0000,   0,1.0000,'            '
 7.00000E-4, 1.38000E-2,   100.00
1.06000,   0.000,   0.000,     0.00,     0.00,     0.00, 0,      0, 1.20000, 0.80000, 1.20000, 0.80000,   8, 0, 0.00000, 0.00000,  0.000
1.00000,   0.000
    19,    33,     0,'1 ',1,1,1, 0.00000E+0, 0.00000E+0,2,'            ',1,   1,1.0000,   0,1.0000,   0,1.0000,   0,1.0000,'            '
 7.00000E-4, 1.42000E-2,   100.00
1.07000,   0.000,   0.000,     0.00,     0.00,     0.00, 0,      0, 1.20000, 0.80000, 1.20000, 0.80000,   8, 0, 0.00000, 0.00000,  0.000
1.00000,   0.000
    20,    34,     0,'1 ',1,1,1, 0.00000E+0, 0.00000E+0,2,'            ',1,   1,1.0000,   0,1.0000,   0,1.0000,   0,1.0000,'            '
 9.00000E-4, 1.80000E-2,   100.00
1.00900,   0.000,   0.000,     0.00,     0.00,     0.00, 0,      0, 1.20000, 0.80000, 1.20000, 0.80000,   8, 0, 0.00000, 0.00000,  0.000
1.00000,   0.000
    22,    35,     0,'1 ',1,1,1, 0.00000E+0, 0.00000E+0,2,'            ',1,   1,1.0000,   0,1.0000,   0,1.0000,   0,1.0000,'            '
 0.00000E+0, 1.43000E-2,   100.00
1.02500,   0.000,   0.000,     0.00,     0.00,     0.00, 0,      0, 1.20000, 0.80000, 1.20000, 0.80000,   8, 0, 0.00000, 0.00000,  0.000
1.00000,   0.000
    23,    36,     0,'1 ',1,1,1, 0.00000E+0, 0.00000E+0,2,'            ',1,   1,1.0000,   0,1.0000,   0,1.0000,   0,1.0000,'            '
 5.00000E-4, 2.72000E-2,   100.00
1.00000,   0.000,   0.000,     0.00,     0.00,     0.00, 0,      0, 1.20000, 0.80000, 1.20000, 0.80000,   8, 0, 0.00000, 0.00000,  0.000
1.00000,   0.000
    25,    37,     0,'1 ',1,1,1, 0.00000E+0, 0.00000E+0,2,'            ',1,   1,1.0000,   0,1.0000,   0,1.0000,   0,1.0000,'            '
 6.00000E-4, 2.32000E-2,   100.00
1.02500,   0.000,   0.000,     0.00,     0.00,     0.00, 0,      0, 1.20000, 0.80000, 1.20000, 0.80000,   8, 0, 0.00000, 0.00000,  0.000
1.00000,   0.000
    29,    38,     0,'1 ',1,1,1, 0.00000E+0, 0.00000E+0,2,'            ',1,   1,1.0000,   0,1.0000,   0,1.0000,   0,1.0000,'            '
 8.00000E-4, 1.56000E-2,   100.00
1.02500,   0.000,   0.000,     0.00,     0.00,     0.00, 0,      0, 1.20000, 0.80000, 1.20000, 0.80000,   8, 0, 0.00000, 0.00000,  0.000
1.00000,   0.000
0 / END OF TRANSFORMER DATA, BEGIN AREA DATA
   1,     0,     0.000,     1.000,'1           '
0 / END OF AREA DATA, BEGIN TWO-TERMINAL DC DATA
0 / END OF TWO-TERMINAL DC DATA, BEGIN VSC DC LINE DATA
0 / END OF VSC DC LINE DATA, BEGIN IMPEDANCE CORRECTION DATA
0 / END OF IMPEDANCE CORRECTION DATA, BEGIN MULTI-TERMINAL DC DATA
0 / END OF MULTI-TERMINAL DC DATA, BEGIN MULTI-SECTION LINE DATA
0 / END OF MULTI-SECTION LINE DATA, BEGIN ZONE DATA
   1,'1           '
0 / END OF ZONE DATA, BEGIN INTER-AREA TRANSFER DATA
0 / END OF INTER-AREA TRANSFER DATA, BEGIN OWNER DATA
   1,'1           '
0 / END OF OWNER DATA, BEGIN FACTS DEVICE DATA
0 / END OF FACTS DEVICE DATA, BEGIN SWITCHED SHUNT DATA
0 / END OF SWITCHED SHUNT DATA, BEGIN GNE DATA
0 / END OF GNE DATA, BEGIN INDUCTION MACHINE DATA
0 / END OF INDUCTION MACHINE DATA
Q
